Version 4.1
SHEET 1 880 680
WIRE 128 48 64 48
WIRE 272 48 208 48
WIRE 384 48 336 48
WIRE 496 48 384 48
WIRE 64 80 64 48
WIRE 384 96 384 48
WIRE 496 96 496 48
WIRE 384 224 384 176
WIRE 496 224 496 176
WIRE 496 224 384 224
WIRE 384 256 384 224
FLAG 64 160 0
FLAG 384 256 0
SYMBOL voltage 64 64 R0
WINDOW 123 24 44 Left 2
WINDOW 39 0 0 Left 0
SYMATTR InstName V1
SYMATTR Value ""
SYMATTR Value2 AC 1
SYMBOL res 224 32 R90
WINDOW 0 0 56 VBottom 2
WINDOW 3 32 56 VTop 2
SYMATTR InstName R1
SYMATTR Value 50
SYMBOL cap 336 32 R90
WINDOW 0 0 32 VBottom 2
WINDOW 3 32 32 VTop 2
SYMATTR InstName C1
SYMATTR Value 0.47µ
SYMBOL res 368 80 R0
SYMATTR InstName R2
SYMATTR Value 620
SYMBOL res 480 80 R0
SYMATTR InstName R3
SYMATTR Value 600
TEXT 56 328 Left 2 !.ac lin 100 1 5000
